<?xml version="1.0" encoding="UTF-8"?>

<!-- generated on 2022-05-23 16:12:19 by Eclipse SUMO jtrrouter Version v1_13_0+0249-a3cd04c39d8
<configuration xmlns:xsi="http://www.w3.org/2001/XMLSchema-instance" xsi:noNamespaceSchemaLocation="http://sumo.dlr.de/xsd/jtrrouterConfiguration.xsd">

    <input>
        <net-file value="grid.net.xml"/>
        <route-files value="flows.xml"/>
    </input>

    <output>
        <output-file value="grid.rou.xml"/>
    </output>

    <processing>
        <accept-all-destinations value="true"/>
    </processing>

    <time>
        <begin value="0"/>
        <end value="60"/>
    </time>

</configuration>
-->

<routes xmlns:xsi="http://www.w3.org/2001/XMLSchema-instance" xsi:noNamespaceSchemaLocation="http://sumo.dlr.de/xsd/routes_file.xsd">
    <vehicle id="0.0" depart="0.00">
        <route edges="D0E0 E0E1 E1D1 D1D2 D2D3 D3C3 C3C4 C4B4 B4A4 A4A3 A3B3 B3B2 B2C2 C2D2 D2E2 E2E3 E3E4 E4D4 D4E4 E4E3 E3E2 E2D2 D2C2 C2B2 B2A2 A2B2 B2B3 B3A3 A3A2 A2A1 A1A0"/>
    </vehicle>
</routes>
